Version 4
SHEET 1 1976 3224
WIRE -528 -128 -528 -160
WIRE -576 -96 -608 -96
WIRE -384 -80 -528 -80
WIRE -608 -48 -608 -96
WIRE -608 0 -608 -48
WIRE -576 0 -608 0
WIRE -528 0 -528 -32
WIRE 912 16 592 16
WIRE -880 128 -928 128
WIRE 112 144 80 144
WIRE 192 144 128 144
WIRE 736 176 736 160
WIRE -528 224 -528 192
WIRE 192 224 192 144
WIRE 240 224 192 224
WIRE 320 224 288 224
WIRE 400 224 336 224
WIRE 688 224 656 224
WIRE 912 240 912 16
WIRE 912 240 736 240
WIRE -576 256 -608 256
WIRE -368 272 -528 272
WIRE 592 288 592 16
WIRE -928 304 -928 128
WIRE -880 304 -928 304
WIRE -608 304 -608 256
WIRE 112 304 80 304
WIRE 192 304 192 224
WIRE 192 304 128 304
WIRE 544 320 544 288
WIRE 656 320 656 224
WIRE 688 320 656 320
WIRE 736 320 736 288
WIRE -608 352 -608 304
WIRE -576 352 -608 352
WIRE -528 352 -528 320
WIRE -928 368 -928 304
WIRE -928 368 -960 368
WIRE 400 400 400 224
WIRE 544 400 544 368
WIRE 544 400 400 400
WIRE 656 400 656 320
WIRE 656 400 544 400
WIRE -928 480 -928 368
WIRE -880 480 -928 480
WIRE 112 496 80 496
WIRE 192 496 128 496
WIRE -528 560 -528 528
WIRE 192 576 192 496
WIRE 240 576 192 576
WIRE 320 576 288 576
WIRE 400 576 400 400
WIRE 400 576 336 576
WIRE -576 592 -608 592
WIRE -336 608 -528 608
WIRE -928 640 -928 480
WIRE -880 640 -928 640
WIRE -608 640 -608 592
WIRE 112 656 80 656
WIRE 192 656 192 576
WIRE 192 656 128 656
WIRE -608 688 -608 640
WIRE -576 688 -608 688
WIRE -528 688 -528 656
WIRE 912 832 592 832
WIRE 112 960 80 960
WIRE 192 960 128 960
WIRE 736 992 736 976
WIRE 192 1040 192 960
WIRE 240 1040 192 1040
WIRE 320 1040 288 1040
WIRE 400 1040 336 1040
WIRE 688 1040 656 1040
WIRE 912 1056 912 832
WIRE 912 1056 736 1056
WIRE 592 1104 592 832
WIRE 112 1120 80 1120
WIRE 192 1120 192 1040
WIRE 192 1120 128 1120
WIRE 544 1136 544 1104
WIRE 656 1136 656 1040
WIRE 688 1136 656 1136
WIRE 736 1136 736 1104
WIRE 400 1216 400 1040
WIRE 544 1216 544 1184
WIRE 544 1216 400 1216
WIRE 656 1216 656 1136
WIRE 656 1216 544 1216
WIRE 112 1312 80 1312
WIRE 192 1312 128 1312
WIRE 192 1392 192 1312
WIRE 240 1392 192 1392
WIRE 320 1392 288 1392
WIRE 400 1392 400 1216
WIRE 400 1392 336 1392
WIRE 112 1472 80 1472
WIRE 192 1472 192 1392
WIRE 192 1472 128 1472
FLAG 736 336 0
FLAG 48 96 A
IOPIN 48 96 In
FLAG 112 352 A_bar
IOPIN 112 352 In
FLAG 48 448 A
IOPIN 48 448 In
FLAG 112 704 A_bar
IOPIN 112 704 In
FLAG 32 144 B_bar
IOPIN 32 144 In
FLAG 32 304 B
IOPIN 32 304 In
FLAG 32 496 B
IOPIN 32 496 In
FLAG 32 656 B_bar
IOPIN 32 656 In
FLAG 320 272 C_bar
IOPIN 320 272 In
FLAG 320 624 C
IOPIN 320 624 In
FLAG -960 368 0
FLAG -800 128 VDD
IOPIN -800 128 In
FLAG -800 304 A
IOPIN -800 304 In
FLAG -800 480 B
IOPIN -800 480 In
FLAG -800 640 C
IOPIN -800 640 In
FLAG 736 144 VDD
IOPIN 736 144 In
FLAG 544 272 VDD
IOPIN 544 272 In
FLAG -528 368 0
FLAG -528 176 VDD
IOPIN -528 176 In
FLAG -528 704 0
FLAG -528 512 VDD
IOPIN -528 512 In
FLAG -528 16 0
FLAG -528 -176 VDD
IOPIN -528 -176 In
FLAG -608 -48 A
IOPIN -608 -48 In
FLAG -608 304 B
IOPIN -608 304 In
FLAG -608 640 C
IOPIN -608 640 In
FLAG -384 -80 A_bar
IOPIN -384 -80 In
FLAG -368 272 B_bar
IOPIN -368 272 In
FLAG -336 608 C_bar
IOPIN -336 608 In
FLAG 656 400 Sum
IOPIN 656 400 Out
FLAG 736 1152 0
FLAG 48 912 A
IOPIN 48 912 In
FLAG 112 1168 A_bar
IOPIN 112 1168 In
FLAG 48 1264 A
IOPIN 48 1264 In
FLAG 112 1520 A_bar
IOPIN 112 1520 In
FLAG 32 960 B
IOPIN 32 960 In
FLAG 32 1472 B
IOPIN 32 1472 In
FLAG 320 1088 C_bar
IOPIN 320 1088 In
FLAG 320 1440 C
IOPIN 320 1440 In
FLAG 736 960 VDD
IOPIN 736 960 In
FLAG 544 1088 VDD
IOPIN 544 1088 In
FLAG 656 1216 Carry
IOPIN 656 1216 Out
FLAG 32 1120 0
FLAG 32 1312 VDD
IOPIN 32 1312 In
SYMBOL nmos4 128 96 R90
SYMATTR InstName M1
SYMATTR Value2 l=180nm w=180nm
SYMBOL nmos4 32 352 R270
SYMATTR InstName M2
SYMATTR Value2 l=180nm w=180nm
SYMBOL nmos4 240 272 R270
SYMATTR InstName M3
SYMATTR Value2 l=180nm w=180nm
SYMBOL nmos4 128 448 R90
SYMATTR InstName M4
SYMATTR Value2 l=180nm w=180nm
SYMBOL nmos4 32 704 R270
SYMATTR InstName M5
SYMATTR Value2 l=180nm w=180nm
SYMBOL nmos4 240 624 R270
SYMATTR InstName M6
SYMATTR Value2 l=180nm w=180nm
SYMBOL pmos4 592 368 R180
SYMATTR InstName M7
SYMATTR Value2 l=180nm w=180nm
SYMBOL pmos4 688 144 R0
SYMATTR InstName M8
SYMATTR Value2 l=180nm w=720nm
SYMBOL nmos4 688 240 R0
SYMATTR InstName M9
SYMATTR Value2 l=180nm w=180nm
SYMBOL voltage -784 128 R90
WINDOW 0 -32 56 VBottom 2
WINDOW 3 32 56 VTop 2
WINDOW 123 0 0 Left 0
WINDOW 39 0 0 Left 0
SYMATTR InstName V1
SYMATTR Value 1.8
SYMBOL voltage -784 304 R90
WINDOW 0 -32 56 VBottom 2
WINDOW 3 32 56 VTop 2
WINDOW 123 0 0 Left 0
WINDOW 39 0 0 Left 0
SYMATTR InstName V2
SYMATTR Value PULSE(0 1.8 0 1p 1p 4n 8n 1)
SYMBOL voltage -784 480 R90
WINDOW 0 -32 56 VBottom 2
WINDOW 3 32 56 VTop 2
WINDOW 123 0 0 Left 0
WINDOW 39 0 0 Left 0
SYMATTR InstName V3
SYMATTR Value PULSE(0 1.8 0 1p 1p 2n 4n 2)
SYMBOL voltage -784 640 R90
WINDOW 0 -32 56 VBottom 2
WINDOW 3 32 56 VTop 2
WINDOW 123 0 0 Left 0
WINDOW 39 0 0 Left 0
SYMATTR InstName V4
SYMATTR Value PULSE(0 1.8 0 1p 1p 1n 2n 4)
SYMBOL pmos4 -576 176 R0
SYMATTR InstName M10
SYMATTR Value2 l=180nm w=720nm
SYMBOL nmos4 -576 272 R0
SYMATTR InstName M11
SYMATTR Value2 l=180nm w=180nm
SYMBOL pmos4 -576 512 R0
SYMATTR InstName M12
SYMATTR Value2 l=180nm w=720nm
SYMBOL nmos4 -576 608 R0
SYMATTR InstName M13
SYMATTR Value2 l=180nm w=180nm
SYMBOL pmos4 -576 -176 R0
SYMATTR InstName M14
SYMATTR Value2 l=180nm w=720nm
SYMBOL nmos4 -576 -80 R0
SYMATTR InstName M15
SYMATTR Value2 l=180nm w=180nm
SYMBOL nmos4 128 912 R90
SYMATTR InstName M16
SYMATTR Value2 l=180nm w=180nm
SYMBOL nmos4 32 1168 R270
SYMATTR InstName M17
SYMATTR Value2 l=180nm w=180nm
SYMBOL nmos4 240 1088 R270
SYMATTR InstName M18
SYMATTR Value2 l=180nm w=180nm
SYMBOL nmos4 128 1264 R90
SYMATTR InstName M19
SYMATTR Value2 l=180nm w=180nm
SYMBOL nmos4 32 1520 R270
SYMATTR InstName M20
SYMATTR Value2 l=180nm w=180nm
SYMBOL nmos4 240 1440 R270
SYMATTR InstName M21
SYMATTR Value2 l=180nm w=180nm
SYMBOL pmos4 592 1184 R180
SYMATTR InstName M22
SYMATTR Value2 l=180nm w=180nm
SYMBOL pmos4 688 960 R0
SYMATTR InstName M23
SYMATTR Value2 l=180nm w=720nm
SYMBOL nmos4 688 1056 R0
SYMATTR InstName M24
SYMATTR Value2 l=180nm w=180nm
TEXT 1008 -144 Left 2 !*\n* Predictive Technology Model Beta Version\n* 180nm NMOS SPICE Parametersv (normal one)\n*\n \n.model NMOS NMOS\n+Level = 49\n \n+Lint = 4.e-08 Tox = 4.e-09 \n+Vth0 = 0.3999 Rdsw = 250 \n \n+lmin=1.8e-7 lmax=1.8e-7 wmin=1.8e-7 wmax=1.0e-4 Tref=27.0 version =3.1\n+Xj= 6.0000000E-08         Nch= 5.9500000E+17 \n+lln= 1.0000000            lwn= 1.0000000              wln= 0.00\n+wwn= 0.00                 ll= 0.00\n+lw= 0.00                  lwl= 0.00                   wint= 0.00\n+wl= 0.00                  ww= 0.00                    wwl= 0.00\n+Mobmod=  1                binunit= 2                  xl=  0\n+xw=  0                    binflag=  0\n+Dwg= 0.00                 Dwb= 0.00 \n \n+K1= 0.5613000               K2= 1.0000000E-02 \n+K3= 0.00                  Dvt0= 8.0000000             Dvt1= 0.7500000 \n+Dvt2= 8.0000000E-03       Dvt0w= 0.00                 Dvt1w= 0.00 \n+Dvt2w= 0.00               Nlx= 1.6500000E-07          W0= 0.00 \n+K3b= 0.00                 Ngate= 5.0000000E+20 \n \n+Vsat= 1.3800000E+05       Ua= -7.0000000E-10          Ub= 3.5000000E-18 \n+Uc= -5.2500000E-11        Prwb= 0.00 \n+Prwg= 0.00                Wr= 1.0000000               U0= 3.5000000E-02 \n+A0= 1.1000000             Keta= 4.0000000E-02         A1= 0.00 \n+A2= 1.0000000             Ags= -1.0000000E-02         B0= 0.00 \n+B1= 0.00 \n \n+Voff= -0.12350000          NFactor= 0.9000000          Cit= 0.00 \n+Cdsc= 0.00                Cdscb= 0.00                 Cdscd= 0.00 \n+Eta0= 0.2200000           Etab= 0.00                  Dsub= 0.8000000 \n \n+Pclm= 5.0000000E-02       Pdiblc1= 1.2000000E-02      Pdiblc2= 7.5000000E-03 \n+Pdiblcb= -1.3500000E-02   Drout= 1.7999999E-02        Pscbe1= 8.6600000E+08 \n+Pscbe2= 1.0000000E-20     Pvag= -0.2800000            Delta= 1.0000000E-02 \n+Alpha0= 0.00              Beta0= 30.0000000 \n \n+kt1= -0.3700000           kt2= -4.0000000E-02         At= 5.5000000E+04 \n+Ute= -1.4800000           Ua1= 9.5829000E-10          Ub1= -3.3473000E-19 \n+Uc1= 0.00                 Kt1l= 4.0000000E-09         Prt= 0.00 \n \n+Cj= 0.00365               Mj= 0.54                    Pb= 0.982\n+Cjsw= 7.9E-10             Mjsw= 0.31                  Php= 0.841\n+Cta= 0                    Ctp= 0                      Pta= 0\n+Ptp= 0                    JS=1.50E-08                 JSW=2.50E-13\n+N=1.0                     Xti=3.0                     Cgdo=2.786E-10\n+Cgso=2.786E-10            Cgbo=0.0E+00                Capmod= 2\n+NQSMOD= 0                 Elm= 5                      Xpart= 1\n+Cgsl= 1.6E-10             Cgdl= 1.6E-10               Ckappa= 2.886\n+Cf= 1.069e-10             Clc= 0.0000001              Cle= 0.6\n+Dlc= 4E-08                Dwc= 0                      Vfbcv= -1\n \n \n*\n* Predictive Technology Model Beta Version\n* 180nm PMOS SPICE Parametersv (normal one)\n*\n \n.model PMOS PMOS\n+Level = 49\n \n+Lint = 3.e-08 Tox = 4.2e-09 \n+Vth0 = -0.42 Rdsw = 450 \n \n+lmin=1.8e-7 lmax=1.8e-7 wmin=1.8e-7 wmax=1.0e-4 Tref=27.0 version =3.1\n+Xj= 7.0000000E-08         Nch= 5.9200000E+17 \n+lln= 1.0000000            lwn= 1.0000000              wln= 0.00\n+wwn= 0.00                 ll= 0.00\n+lw= 0.00                  lwl= 0.00                   wint= 0.00\n+wl= 0.00                  ww= 0.00                    wwl= 0.00\n+Mobmod=  1                binunit= 2                  xl= 0.00\n+xw= 0.00                  \n+binflag=  0               Dwg= 0.00                   Dwb= 0.00 \n \n+ACM= 0                    ldif=0.00                   hdif=0.00\n+rsh= 0                    rd= 0                       rs= 0\n+rsc= 0                    rdc= 0\n \n+K1= 0.5560000             K2= 0.00 \n+K3= 0.00                  Dvt0= 11.2000000            Dvt1= 0.7200000 \n+Dvt2= -1.0000000E-02      Dvt0w= 0.00                 Dvt1w= 0.00 \n+Dvt2w= 0.00               Nlx= 9.5000000E-08          W0= 0.00 \n+K3b= 0.00                 Ngate= 5.0000000E+20 \n \n+Vsat= 1.0500000E+05       Ua= -1.2000000E-10          Ub= 1.0000000E-18 \n+Uc= -2.9999999E-11        Prwb= 0.00 \n+Prwg= 0.00                Wr= 1.0000000               U0= 8.0000000E-03 \n+A0= 2.1199999             Keta= 2.9999999E-02         A1= 0.00 \n+A2= 0.4000000             Ags= -0.1000000             B0= 0.00 \n+B1= 0.00 \n \n+Voff= -6.40000000E-02      NFactor= 1.4000000          Cit= 0.00 \n+Cdsc= 0.00                Cdscb= 0.00                 Cdscd= 0.00 \n+Eta0= 8.5000000           Etab= 0.00                  Dsub= 2.8000000 \n \n+Pclm= 2.0000000           Pdiblc1= 0.1200000          Pdiblc2= 8.0000000E-05 \n+Pdiblcb= 0.1450000        Drout= 5.0000000E-02        Pscbe1= 1.0000000E-20 \n+Pscbe2= 1.0000000E-20     Pvag= -6.0000000E-02        Delta= 1.0000000E-02 \n+Alpha0= 0.00              Beta0= 30.0000000 \n \n+kt1= -0.3700000           kt2= -4.0000000E-02         At= 5.5000000E+04 \n+Ute= -1.4800000           Ua1= 9.5829000E-10          Ub1= -3.3473000E-19 \n+Uc1= 0.00                 Kt1l= 4.0000000E-09         Prt= 0.00 \n \n+Cj= 0.00138               Mj= 1.05                    Pb= 1.24\n+Cjsw= 1.44E-09            Mjsw= 0.43                  Php= 0.841\n+Cta= 0.00093              Ctp= 0                      Pta= 0.00153\n+Ptp= 0                    JS=1.50E-08                 JSW=2.50E-13\n+N=1.0                     Xti=3.0                     Cgdo=2.786E-10\n+Cgso=2.786E-10            Cgbo=0.0E+00                Capmod= 2\n+NQSMOD= 0                 Elm= 5                      Xpart= 1\n+Cgsl= 1.6E-10             Cgdl= 1.6E-10               Ckappa= 2.886\n+Cf= 1.058e-10             Clc= 0.0000001              Cle= 0.6\n+Dlc= 3E-08                Dwc= 0                      Vfbcv= -1
TEXT -1016 3208 Left 2 !.tran 8n
TEXT -832 1032 Left 2 ;tplh = 0.087543 ns
TEXT -832 1072 Left 2 ;tphl = 0.09121 ns
